data_10
_audit_creation_date              2020-05-21
_symmetry_space_group_name_H-M    'P1'
_symmetry_Int_Tables_number       1
_symmetry_cell_setting            triclinic
loop_
_symmetry_equiv_pos_as_xyz
  x,y,z
_cell_length_a                    25.6780
_cell_length_b                    2.4595
_cell_length_c                    25.6780
_cell_angle_alpha                 90.0000
_cell_angle_beta                  120.0000
_cell_angle_gamma                 90.0000
loop_
_atom_site_label
_atom_site_type_symbol
_atom_site_fract_x
_atom_site_fract_y
_atom_site_fract_z
C1     C     0.62302   0.25000   0.71254
C2     C     0.71305   0.25000   0.61740
C3     C     0.66896   0.25000   0.69740
C4     C     0.70729   0.25000   0.55965
C5     C     0.64265   0.25000   0.43385
C6     C     0.46484   0.25000   0.30012
C7     C     0.58953   0.25000   0.37698
C8     C     0.40435   0.25000   0.28695
C9     C     0.37698   0.75000   0.28746
C10    C     0.28695   0.75000   0.38260
C11    C     0.33104   0.75000   0.30260
C12    C     0.29271   0.75000   0.44035
C13    C     0.35735   0.75000   0.56615
C14    C     0.53516   0.75000   0.69988
C15    C     0.41047   0.75000   0.62302
C16    C     0.59565   0.75000   0.71305
C17    C     0.68650   0.75000   0.68311
C18    C     0.69740   0.75000   0.52845
C19    C     0.70880   0.75000   0.64265
C20    C     0.66472   0.75000   0.46484
C21    C     0.55965   0.75000   0.35237
C22    C     0.49660   0.75000   0.31350
C23    C     0.31350   0.25000   0.31689
C24    C     0.30260   0.25000   0.47155
C25    C     0.29120   0.25000   0.35735
C26    C     0.33528   0.25000   0.53516
C27    C     0.44035   0.25000   0.64763
C28    C     0.50340   0.25000   0.68650