data_20
_audit_creation_date              2020-05-21
_symmetry_space_group_name_H-M    'P1'
_symmetry_Int_Tables_number       1
_symmetry_cell_setting            triclinic
loop_
_symmetry_equiv_pos_as_xyz
  x,y,z
_cell_length_a                    47.3740
_cell_length_b                    2.4595
_cell_length_c                    47.3740
_cell_angle_alpha                 90.0000
_cell_angle_beta                  120.0000
_cell_angle_gamma                 90.0000
loop_
_atom_site_label
_atom_site_type_symbol
_atom_site_fract_x
_atom_site_fract_y
_atom_site_fract_z
C1     C     0.74423   0.25000   0.65884
C2     C     0.73595   0.25000   0.68378
C3     C     0.70587   0.25000   0.72251
C4     C     0.63190   0.25000   0.74771
C5     C     0.68464   0.25000   0.73555
C6     C     0.34116   0.25000   0.58539
C7     C     0.31622   0.25000   0.55217
C8     C     0.27749   0.25000   0.48335
C9     C     0.25229   0.25000   0.38419
C10    C     0.26445   0.25000   0.44909
C11    C     0.41461   0.25000   0.25577
C12    C     0.44783   0.25000   0.26405
C13    C     0.51665   0.25000   0.29413
C14    C     0.61581   0.25000   0.36810
C15    C     0.55091   0.25000   0.31536
C16    C     0.25577   0.75000   0.34116
C17    C     0.26405   0.75000   0.31622
C18    C     0.29413   0.75000   0.27749
C19    C     0.36810   0.75000   0.25229
C20    C     0.31536   0.75000   0.26445
C21    C     0.65884   0.75000   0.41461
C22    C     0.68378   0.75000   0.44783
C23    C     0.72251   0.75000   0.51665
C24    C     0.74771   0.75000   0.61581
C25    C     0.73555   0.75000   0.55091
C26    C     0.58539   0.75000   0.74423
C27    C     0.55217   0.75000   0.73595
C28    C     0.48335   0.75000   0.70587
C29    C     0.38419   0.75000   0.63190
C30    C     0.44909   0.75000   0.68464
C31    C     0.73008   0.75000   0.69494
C32    C     0.74659   0.75000   0.64518
C33    C     0.71500   0.75000   0.71435
C34    C     0.67266   0.75000   0.74037
C35    C     0.64622   0.75000   0.74646
C36    C     0.30506   0.75000   0.53514
C37    C     0.35482   0.75000   0.60141
C38    C     0.28565   0.75000   0.50064
C39    C     0.25963   0.75000   0.43229
C40    C     0.25354   0.75000   0.39976
C41    C     0.46486   0.75000   0.26992
C42    C     0.39859   0.75000   0.25341
C43    C     0.49936   0.75000   0.28500
C44    C     0.56771   0.75000   0.32734
C45    C     0.60024   0.75000   0.35378
C46    C     0.26992   0.25000   0.30506
C47    C     0.25341   0.25000   0.35482
C48    C     0.28500   0.25000   0.28565
C49    C     0.32734   0.25000   0.25963
C50    C     0.35378   0.25000   0.25354
C51    C     0.69494   0.25000   0.46486
C52    C     0.64518   0.25000   0.39859
C53    C     0.71435   0.25000   0.49936
C54    C     0.74037   0.25000   0.56771
C55    C     0.74646   0.25000   0.60024
C56    C     0.53514   0.25000   0.73008
C57    C     0.60141   0.25000   0.74659
C58    C     0.50064   0.25000   0.71500
C59    C     0.43229   0.25000   0.67266
C60    C     0.39976   0.25000   0.64622