data_30
_audit_creation_date              2020-05-21
_symmetry_space_group_name_H-M    'P1'
_symmetry_Int_Tables_number       1
_symmetry_cell_setting            triclinic
loop_
_symmetry_equiv_pos_as_xyz
  x,y,z
_cell_length_a                    66.3580
_cell_length_b                    2.4595
_cell_length_c                    66.3580
_cell_angle_alpha                 90.0000
_cell_angle_beta                  120.0000
_cell_angle_gamma                 90.0000
loop_
_atom_site_label
_atom_site_type_symbol
_atom_site_fract_x
_atom_site_fract_y
_atom_site_fract_z
C1     C     0.65641   0.00000   0.75759
C2     C     0.67539   0.00000   0.75339
C3     C     0.70843   0.00000   0.73817
C4     C     0.74356   0.00000   0.69946
C5     C     0.72219   0.00000   0.72729
C6     C     0.75099   0.00000   0.68277
C7     C     0.75897   0.00000   0.64459
C8     C     0.75339   0.00000   0.57800
C9     C     0.75945   0.00000   0.62344
C10    C     0.74690   0.00000   0.55412
C11    C     0.72729   0.00000   0.50510
C12    C     0.68277   0.00000   0.43178
C13    C     0.71434   0.00000   0.48041
C14    C     0.66442   0.00000   0.40829
C15    C     0.62344   0.00000   0.36399
C16    C     0.55412   0.00000   0.30722
C17    C     0.60118   0.00000   0.34359
C18    C     0.52974   0.00000   0.29157
C19    C     0.48041   0.00000   0.26607
C20    C     0.40829   0.00000   0.24386
C21    C     0.45590   0.00000   0.25644
C22    C     0.38562   0.00000   0.24103
C23    C     0.34359   0.00000   0.24241
C24    C     0.32461   0.00000   0.24661
C25    C     0.29157   0.00000   0.26183
C26    C     0.25644   0.00000   0.30054
C27    C     0.27781   0.00000   0.27271
C28    C     0.24901   0.00000   0.31723
C29    C     0.24103   0.00000   0.35541
C30    C     0.24661   0.00000   0.42200
C31    C     0.24055   0.00000   0.37656
C32    C     0.25310   0.00000   0.44588
C33    C     0.27271   0.00000   0.49490
C34    C     0.31723   0.00000   0.56822
C35    C     0.28566   0.00000   0.51959
C36    C     0.33558   0.00000   0.59171
C37    C     0.37656   0.00000   0.63601
C38    C     0.44588   0.00000   0.69278
C39    C     0.39882   0.00000   0.65641
C40    C     0.47026   0.00000   0.70843
C41    C     0.51959   0.00000   0.73393
C42    C     0.59171   0.00000   0.75614
C43    C     0.54410   0.00000   0.74356
C44    C     0.61438   0.00000   0.75897
C45    C     0.68429   0.50000   0.75043
C46    C     0.64637   0.50000   0.75881
C47    C     0.70083   0.50000   0.74281
C48    C     0.72832   0.50000   0.72107
C49    C     0.75385   0.50000   0.67379
C50    C     0.73902   0.50000   0.70714
C51    C     0.75784   0.50000   0.65468
C52    C     0.75881   0.50000   0.61244
C53    C     0.74281   0.50000   0.54198
C54    C     0.75578   0.50000   0.58970
C55    C     0.73299   0.50000   0.51744
C56    C     0.70714   0.50000   0.46812
C57    C     0.65468   0.50000   0.39684
C58    C     0.69133   0.50000   0.44378
C59    C     0.63417   0.50000   0.37466
C60    C     0.58970   0.50000   0.33392
C61    C     0.51744   0.50000   0.28445
C62    C     0.56614   0.50000   0.31571
C63    C     0.49275   0.50000   0.27168
C64    C     0.44378   0.50000   0.25244
C65    C     0.37466   0.50000   0.24050
C66    C     0.41994   0.50000   0.24615
C67    C     0.31571   0.50000   0.24957
C68    C     0.35363   0.50000   0.24119
C69    C     0.29917   0.50000   0.25719
C70    C     0.27168   0.50000   0.27893
C71    C     0.24615   0.50000   0.32621
C72    C     0.26098   0.50000   0.29286
C73    C     0.24216   0.50000   0.34532
C74    C     0.24119   0.50000   0.38756
C75    C     0.25719   0.50000   0.45802
C76    C     0.24422   0.50000   0.41030
C77    C     0.26701   0.50000   0.48256
C78    C     0.29286   0.50000   0.53188
C79    C     0.34532   0.50000   0.60316
C80    C     0.30867   0.50000   0.55622
C81    C     0.36583   0.50000   0.62534
C82    C     0.41030   0.50000   0.66608
C83    C     0.48256   0.50000   0.71555
C84    C     0.43386   0.50000   0.68429
C85    C     0.50725   0.50000   0.72832
C86    C     0.55622   0.50000   0.74756
C87    C     0.62534   0.50000   0.75950
C88    C     0.58006   0.50000   0.75385