data_40
_audit_creation_date              2020-05-21
_symmetry_space_group_name_H-M    'P1'
_symmetry_Int_Tables_number       1
_symmetry_cell_setting            triclinic
loop_
_symmetry_equiv_pos_as_xyz
  x,y,z
_cell_length_a                    88.0540
_cell_length_b                    2.4595
_cell_length_c                    88.0540
_cell_angle_alpha                 90.0000
_cell_angle_beta                  120.0000
_cell_angle_gamma                 90.0000
loop_
_atom_site_label
_atom_site_type_symbol
_atom_site_fract_x
_atom_site_fract_y
_atom_site_fract_z
C1     C     0.76670  0.50000  0.63693  
C2     C     0.76353  0.50000  0.66745  
C3     C     0.74920  0.50000  0.70696  
C4     C     0.76001  0.50000  0.68152  
C5     C     0.74196  0.50000  0.71819  
C6     C     0.72398  0.50000  0.73742  
C7     C     0.68898  0.50000  0.75750  
C8     C     0.71334  0.50000  0.74532  
C9     C     0.67539  0.50000  0.76173  
C10    C     0.64571  0.50000  0.76634  
C11    C     0.36307  0.50000  0.62977  
C12    C     0.33255  0.50000  0.59608  
C13    C     0.29304  0.50000  0.54224  
C14    C     0.31848  0.50000  0.57849  
C15    C     0.28181  0.50000  0.52377  
C16    C     0.26258  0.50000  0.48657  
C17    C     0.24250  0.50000  0.43147  
C18    C     0.25468  0.50000  0.46802  
C19    C     0.23827  0.50000  0.41366  
C20    C     0.23366  0.50000  0.37938  
C21    C     0.37023  0.50000  0.23330  
C22    C     0.40392  0.50000  0.23647  
C23    C     0.45776  0.50000  0.25080  
C24    C     0.42151  0.50000  0.23999  
C25    C     0.47623  0.50000  0.25804  
C26    C     0.51343  0.50000  0.27602  
C27    C     0.56853  0.50000  0.31102  
C28    C     0.53198  0.50000  0.28666  
C29    C     0.58634  0.50000  0.32461  
C30    C     0.62062  0.50000  0.35429  
C31    C     0.23330  0.50000  0.36307  
C32    C     0.23647  0.50000  0.33255  
C33    C     0.25080  0.50000  0.29304  
C34    C     0.23999  0.50000  0.31848  
C35    C     0.25804  0.50000  0.28181  
C36    C     0.27602  0.50000  0.26258  
C37    C     0.31102  0.50000  0.24250  
C38    C     0.28666  0.50000  0.25468  
C39    C     0.32461  0.50000  0.23827  
C40    C     0.35429  0.50000  0.23366  
C41    C     0.63693  0.50000  0.37023  
C42    C     0.66745  0.50000  0.40392  
C43    C     0.70696  0.50000  0.45776  
C44    C     0.68152  0.50000  0.42151  
C45    C     0.71819  0.50000  0.47623  
C46    C     0.73742  0.50000  0.51343  
C47    C     0.75750  0.50000  0.56853  
C48    C     0.74532  0.50000  0.53198  
C49    C     0.76173  0.50000  0.58634  
C50    C     0.76634  0.50000  0.62062  
C51    C     0.62977  0.50000  0.76670  
C52    C     0.59608  0.50000  0.76353  
C53    C     0.54224  0.50000  0.74920  
C54    C     0.57849  0.50000  0.76001  
C55    C     0.52377  0.50000  0.74196  
C56    C     0.48657  0.50000  0.72398  
C57    C     0.43147  0.50000  0.68898  
C58    C     0.46802  0.50000  0.71334  
C59    C     0.41366  0.50000  0.67539  
C60    C     0.37938  0.50000  0.64571  
C61    C     0.76639 -0.00000  0.64483  
C62    C     0.76480 -0.00000  0.66010  
C63    C     0.75778 -0.00000  0.68823  
C64    C     0.73790 -0.00000  0.72341  
C65    C     0.75237 -0.00000  0.70096  
C66    C     0.72890 -0.00000  0.73303  
C67    C     0.70762 -0.00000  0.74882  
C68    C     0.66827 -0.00000  0.76336  
C69    C     0.69543 -0.00000  0.75492  
C70    C     0.65342 -0.00000  0.76567  
C71    C     0.35517 -0.00000  0.62156  
C72    C     0.33990 -0.00000  0.60470  
C73    C     0.31177 -0.00000  0.56954  
C74    C     0.27659 -0.00000  0.51448  
C75    C     0.29904 -0.00000  0.55141  
C76    C     0.26697 -0.00000  0.49587  
C77    C     0.25118 -0.00000  0.45879  
C78    C     0.23664 -0.00000  0.40490  
C79    C     0.24508 -0.00000  0.44051  
C80    C     0.23433 -0.00000  0.38775  
C81    C     0.37844 -0.00000  0.23361  
C82    C     0.39530 -0.00000  0.23519  
C83    C     0.43046 -0.00000  0.24222  
C84    C     0.48552 -0.00000  0.26210  
C85    C     0.44859 -0.00000  0.24763  
C86    C     0.50413 -0.00000  0.27110  
C87    C     0.54121 -0.00000  0.29238  
C88    C     0.59510 -0.00000  0.33173  
C89    C     0.55949 -0.00000  0.30457  
C90    C     0.61225 -0.00000  0.34658  
C91    C     0.23361 -0.00000  0.35517  
C92    C     0.23519 -0.00000  0.33990  
C93    C     0.24222 -0.00000  0.31177  
C94    C     0.26210 -0.00000  0.27659  
C95    C     0.24763 -0.00000  0.29904  
C96    C     0.27110 -0.00000  0.26697  
C97    C     0.29238 -0.00000  0.25118  
C98    C     0.33173 -0.00000  0.23664  
C99    C     0.30457 -0.00000  0.24508  
C100   C     0.34658 -0.00000  0.23433  
C101   C     0.64483 -0.00000  0.37844  
C102   C     0.66010 -0.00000  0.39530  
C103   C     0.68823 -0.00000  0.43046  
C104   C     0.72341 -0.00000  0.48552  
C105   C     0.70096 -0.00000  0.44859  
C106   C     0.73303 -0.00000  0.50413  
C107   C     0.74882 -0.00000  0.54121  
C108   C     0.76336 -0.00000  0.59510  
C109   C     0.75492 -0.00000  0.55949  
C110   C     0.76567 -0.00000  0.61225  
C111   C     0.62156 -0.00000  0.76639  
C112   C     0.60470 -0.00000  0.76480  
C113   C     0.56954 -0.00000  0.75778  
C114   C     0.51448 -0.00000  0.73790  
C115   C     0.55141 -0.00000  0.75237  
C116   C     0.49587 -0.00000  0.72890  
C117   C     0.45879 -0.00000  0.70762  
C118   C     0.40490 -0.00000  0.66827  
C119   C     0.44051 -0.00000  0.69543  
C120   C     0.38775 -0.00000  0.65342  